<?xml version="1.0" encoding="UTF-8"?>

<!-- generated on 2024-05-21 10:18:46 by Eclipse SUMO sumo Version 1.20.0
-->

<configuration xmlns:xsi="http://www.w3.org/2001/XMLSchema-instance" xsi:noNamespaceSchemaLocation="http://sumo.dlr.de/xsd/sumoConfiguration.xsd">

    <input>
        <net-file value="circle.net.xml"/>
        <route-files value="episode_routes.rou.xml"/>
    </input>

</configuration>
